FoamFile { version 2.0; format ascii; class volScalarField; object p; }
dimensions [0 2 -2 0 0 0 0]; internalField uniform 0;
boundaryField {
    cyc_x0  { type cyclic; }
    cyc_x1  { type cyclic; }
    cyc_y0  { type cyclic; }
    cyc_y1  { type cyclic; }
    frontAndBack { type empty; }
}
