FoamFile { version 2.0; format ascii; class volVectorField; object U; }
dimensions [0 1 -1 0 0 0 0];
internalField uniform (0 0 0);
boundaryField {
    cyc_x0  { type cyclic; }
    cyc_x1  { type cyclic; }
    cyc_y0  { type cyclic; }
    cyc_y1  { type cyclic; }
    frontAndBack { type empty; }
}
