FoamFile { version 2.0; format ascii; class dictionary; object controlDict; }
application foamRun;
startFrom startTime; startTime 0; stopAt endTime; endTime 0.2;
deltaT 0.0001; writeControl adjustableRunTime; writeInterval 0.05;
