FoamFile { version 2.0; format ascii; class dictionary; object fvSchemes; }
fluxScheme Kurganov;
ddtSchemes { default Euler; }
gradSchemes { default Gauss linear; }
divSchemes { default none; }
laplacianSchemes { default Gauss linear orthogonal; }
interpolationSchemes {
    default none;
    reconstruct(rho) limitedLinear 0.5;
    reconstruct(U)  limitedLinearV 0.5;
    reconstruct(T)  limitedLinear 0.5;
    flux(rhoU)      linear;
}
snGradSchemes { default orthogonal; }
